New   LineCode.4x10Cu_as10__VG_YMVK_asmb nphases=4 C1=0.37785 C0=0.22670999 Normamps=95.0 Units=km
~ Rmatrix = [1.87946999 |0.04947 1.87946999 |0.04947 0.04947 1.87946999 | 0.04947 0.04947 0.04947 1.87946999]
~ Xmatrix = [0.90881002 |0.81881005 0.90881002 |0.79881001 0.81881005 0.90881002 | 0.81881005 0.79881001 0.81881005 0.90881002]
New   LineCode.4x10Cu__GPLK nphases=4 C1=0.27700001 C0=0.16620001 Normamps=65.0 Units=km
~ Rmatrix = [1.87946999 |0.04947 1.87946999 |0.04947 0.04947 1.87946999 | 0.04947 0.04947 0.04947 1.87946999]
~ Xmatrix = [0.90881002 |0.82960999 0.90881002 |0.81200999 0.82960999 0.90881002 | 0.82960999 0.81200999 0.82960999 0.90881002]
New   LineCode.4x10Cu_as10Cu__YMvK_asmb nphases=4 C1=0.37785 C0=0.22670999 Normamps=95.0 Units=km
~ Rmatrix = [1.87946999 |0.04947 1.87946999 |0.04947 0.04947 1.87946999 | 0.04947 0.04947 0.04947 1.87946999]
~ Xmatrix = [0.90881002 |0.81881005 0.90881002 |0.79881001 0.81881005 0.90881002 | 0.81881005 0.79881001 0.81881005 0.90881002]
New   LineCode.4x150Al_4x6Cu_50CuAs_V_VMvKhsas nphases=4 C1=0.72000003 C0=0.43200001 Normamps=239.0 Units=km
~ Rmatrix = [0.25547001 |0.04947 0.25547001 |0.04947 0.04947 0.25547001 | 0.04947 0.04947 0.04947 0.25547001]
~ Xmatrix = [0.81673998 |0.74563998 0.81673998 |0.72983998 0.74563998 0.81673998 | 0.74563998 0.72983998 0.74563998 0.81673998]
New   LineCode.4x35Cu__GPLK nphases=4 C1=0.54000002 C0=0.324 Normamps=135.0 Units=km
~ Rmatrix = [0.57347 |0.04947 0.57347 |0.04947 0.04947 0.57347 | 0.04947 0.04947 0.04947 0.57347]
~ Xmatrix = [0.86622 |0.79961997 0.86622 |0.78482002 0.79961997 0.86622 | 0.79961997 0.78482002 0.79961997 0.86622]
New   LineCode.4x70Cu__GPLK nphases=4 C1=0.63 C0=0.37799999 Normamps=200.0 Units=km
~ Rmatrix = [0.31747001 |0.04947 0.31747001 |0.04947 0.04947 0.31747001 | 0.04947 0.04947 0.04947 0.31747001]
~ Xmatrix = [0.84265 |0.77964997 0.84265 |0.76564997 0.77964997 0.84265 | 0.77964997 0.76564997 0.77964997 0.84265]
New   LineCode.4x10Cu_as10__VO_YMvK_asmb nphases=4 C1=0.37785 C0=0.22670999 Normamps=95.0 Units=km
~ Rmatrix = [1.87946999 |0.04947 1.87946999 |0.04947 0.04947 1.87946999 | 0.04947 0.04947 0.04947 1.87946999]
~ Xmatrix = [0.90881002 |0.81881005 0.90881002 |0.79881001 0.81881005 0.90881002 | 0.81881005 0.79881001 0.81881005 0.90881002]
New   LineCode.4x16Cu_as16__VG_YMVK_asmb nphases=4 C1=0.43000001 C0=0.25800002 Normamps=122.0 Units=km
~ Rmatrix = [1.19946992 |0.04947 1.19946992 |0.04947 0.04947 1.19946992 | 0.04947 0.04947 0.04947 1.19946992]
~ Xmatrix = [0.89283001 |0.80643004 0.89283001 |0.78723001 0.80643004 0.89283001 | 0.80643004 0.78723001 0.80643004 0.89283001]
New   LineCode.4x16Cu_as16__VO_YMvK_asmb nphases=4 C1=0.43000001 C0=0.25800002 Normamps=122.0 Units=km
~ Rmatrix = [1.19946992 |0.04947 1.19946992 |0.04947 0.04947 1.19946992 | 0.04947 0.04947 0.04947 1.19946992]
~ Xmatrix = [0.89283001 |0.80643004 0.89283001 |0.78723001 0.80643004 0.89283001 | 0.80643004 0.78723001 0.80643004 0.89283001]
New   LineCode.4x16Cu__VG_VMvK_as nphases=4 C1=0.43000001 C0=0.25800002 Normamps=122.0 Units=km
~ Rmatrix = [1.19946992 |0.04947 1.19946992 |0.04947 0.04947 1.19946992 | 0.04947 0.04947 0.04947 1.19946992]
~ Xmatrix = [0.89283001 |0.80643004 0.89283001 |0.78723001 0.80643004 0.89283001 | 0.80643004 0.78723001 0.80643004 0.89283001]
New   LineCode.4x6Cu__GPLK nphases=4 C1=0.2 C0=0.12 Normamps=49.0 Units=km
~ Rmatrix = [3.12946987 |0.04947 3.12946987 |0.04947 0.04947 3.12946987 | 0.04947 0.04947 0.04947 3.12946987]
~ Xmatrix = [0.92618001 |0.83618003 0.92618001 |0.81617999 0.83618003 0.92618001 | 0.83618003 0.81617999 0.83618003 0.92618001]
New   LineCode.3x10Cu__GPLK nphases=4 C1=0.27700001 C0=0.16620001 Normamps=65.0 Units=km
~ Rmatrix = [1.87946999 |0.04947 1.87946999 |0.04947 0.04947 1.87946999 | 0.04947 0.04947 0.04947 1.87946999]
~ Xmatrix = [0.90881002 |0.82960999 0.90881002 |0.81200999 0.82960999 0.90881002 | 0.82960999 0.81200999 0.82960999 0.90881002]
New   LineCode.4x10Cu__VO_YMvKas nphases=4 C1=0.37785 C0=0.22670999 Normamps=95.0 Units=km
~ Rmatrix = [1.87946999 |0.04947 1.87946999 |0.04947 0.04947 1.87946999 | 0.04947 0.04947 0.04947 1.87946999]
~ Xmatrix = [0.90881002 |0.81881005 0.90881002 |0.79881001 0.81881005 0.90881002 | 0.81881005 0.79881001 0.81881005 0.90881002]
New   LineCode.3x2p5Cu__GPLK nphases=4 C1=0.2 C0=0.12 Normamps=32.0 Units=km
~ Rmatrix = [7.4594698 |0.04947 7.4594698 |0.04947 0.04947 7.4594698 | 0.04947 0.04947 0.04947 7.4594698]
~ Xmatrix = [0.95595002 |0.86595005 0.95595002 |0.84595001 0.86595005 0.95595002 | 0.86595005 0.84595001 0.86595005 0.95595002]
New   LineCode.GPLK-Al-240 nphases=4 C1=0.2 C0=0.12 Normamps=32.0 Units=km
~ Rmatrix = [7.4594698 |0.04947 7.4594698 |0.04947 0.04947 7.4594698 | 0.04947 0.04947 0.04947 7.4594698]
~ Xmatrix = [0.95595002 |0.86595005 0.95595002 |0.84595001 0.86595005 0.95595002 | 0.86595005 0.84595001 0.86595005 0.95595002]
New   LineCode.GPLK-Cu-95 nphases=4 C1=0.2 C0=0.12 Normamps=32.0 Units=km
~ Rmatrix = [7.4594698 |0.04947 7.4594698 |0.04947 0.04947 7.4594698 | 0.04947 0.04947 0.04947 7.4594698]
~ Xmatrix = [0.95595002 |0.86595005 0.95595002 |0.84595001 0.86595005 0.95595002 | 0.86595005 0.84595001 0.86595005 0.95595002]
New   LineCode.lv_line nphases=4 C1=0.308 C0=0.18 Normamps=216.0 Units=km
~ Rmatrix = [1.87946999 |0.04947 1.87946999 |0.04947 0.04947 1.87946999 | 0.04947 0.04947 0.04947 1.87946999]
~ Xmatrix = [0.90881002 |0.81881005 0.90881002 |0.79881001 0.81881005 0.90881002 | 0.81881005 0.79881001 0.81881005 0.90881002]
New   LineCode.lv_line_to_home nphases=4 C1=0.2 C0=0.12 Normamps=32.0 Units=km
~ Rmatrix = [7.4594698 |0.04947 7.4594698 |0.04947 0.04947 7.4594698 | 0.04947 0.04947 0.04947 7.4594698]
~ Xmatrix = [0.95595002 |0.86595005 0.95595002 |0.84595001 0.86595005 0.95595002 | 0.86595005 0.84595001 0.86595005 0.95595002]
New   LineCode.4x50Al_4x2p5Cu_as25__V_VMvKhsas nphases=4 C1=0.54000002 C0=0.324 Normamps=126.0 Units=km
~ Rmatrix = [0.69046998 |0.04947 0.69046998 |0.04947 0.04947 0.69046998 | 0.04947 0.04947 0.04947 0.69046998]
~ Xmatrix = [0.85408998 |0.77758998 0.85408998 |0.76058996 0.77758998 0.85408998 | 0.77758998 0.76058996 0.77758998 0.85408998]
New   LineCode.4x150Al_as50__VMvK_as nphases=4 C1=0.72000003 C0=0.43200001 Normamps=239.0 Units=km
~ Rmatrix = [0.25547001 |0.04947 0.25547001 |0.04947 0.04947 0.25547001 | 0.04947 0.04947 0.04947 0.25547001]
~ Xmatrix = [0.81673998 |0.74563998 0.81673998 |0.72983998 0.74563998 0.81673998 | 0.74563998 0.72983998 0.74563998 0.81673998]
New   LineCode.4x150Al__VMvK nphases=4 C1=0.43599999 C0=0.26159999 Normamps=248.0 Units=km
~ Rmatrix = [0.25547001 |0.04947 0.25547001 |0.04947 0.04947 0.25547001 | 0.04947 0.04947 0.04947 0.25547001]
~ Xmatrix = [0.81673998 |0.74563998 0.81673998 |0.72983998 0.74563998 0.81673998 | 0.74563998 0.72983998 0.74563998 0.81673998]
New   LineCode.4x10Cu_re_as10__YCWY_mb nphases=4 C1=0.37785 C0=0.22670999 Normamps=95.0 Units=km
~ Rmatrix = [1.87946999 |0.04947 1.87946999 |0.04947 0.04947 1.87946999 | 0.04947 0.04947 0.04947 1.87946999]
~ Xmatrix = [0.90881002 |0.81881005 0.90881002 |0.79881001 0.81881005 0.90881002 | 0.81881005 0.79881001 0.81881005 0.90881002]
New   LineCode.4x16Cu_as16__YMvK_asmb nphases=4 C1=0.43000001 C0=0.25800002 Normamps=122.0 Units=km
~ Rmatrix = [1.19946992 |0.04947 1.19946992 |0.04947 0.04947 1.19946992 | 0.04947 0.04947 0.04947 1.19946992]
~ Xmatrix = [0.89283001 |0.80643004 0.89283001 |0.78723001 0.80643004 0.89283001 | 0.80643004 0.78723001 0.80643004 0.89283001]
New   LineCode.5x10Cu__YMvK_mb nphases=4 C1=0.229 C0=0.1374 Normamps=95.0 Units=km
~ Rmatrix = [1.87946999 |0.04947 1.87946999 |0.04947 0.04947 1.87946999 | 0.04947 0.04947 0.04947 1.87946999]
~ Xmatrix = [0.90881002 |0.81881005 0.90881002 |0.79881001 0.81881005 0.90881002 | 0.81881005 0.79881001 0.81881005 0.90881002]
New   LineCode.4x25Cu__GPLK nphases=4 C1=0.47 C0=0.28200001 Normamps=112.0 Units=km
~ Rmatrix = [0.77647001 |0.04947 0.77647001 |0.04947 0.04947 0.77647001 | 0.04947 0.04947 0.04947 0.77647001]
~ Xmatrix = [0.87765998 |0.80925995 0.87765998 |0.79405999 0.80925995 0.87765998 | 0.80925995 0.79405999 0.80925995 0.87765998]
New   LineCode.4x16Cu_4x2p5Cu__GPLKh nphases=4 C1=0.34999999 C0=0.20999999 Normamps=85.0 Units=km
~ Rmatrix = [1.19946992 |0.04947 1.19946992 |0.04947 0.04947 1.19946992 | 0.04947 0.04947 0.04947 1.19946992]
~ Xmatrix = [0.89283001 |0.82173002 0.89283001 |0.80593002 0.82173002 0.89283001 | 0.82173002 0.80593002 0.82173002 0.89283001]
New   LineCode.4x16Cu__GPLK nphases=4 C1=0.34999999 C0=0.20999999 Normamps=85.0 Units=km
~ Rmatrix = [1.19946992 |0.04947 1.19946992 |0.04947 0.04947 1.19946992 | 0.04947 0.04947 0.04947 1.19946992]
~ Xmatrix = [0.89283001 |0.82173002 0.89283001 |0.80593002 0.82173002 0.89283001 | 0.82173002 0.80593002 0.82173002 0.89283001]
New   LineCode.4x95Al__VG_VMvK_sas nphases=4 C1=0.66000003 C0=0.39600003 Normamps=184.0 Units=km
~ Rmatrix = [0.36947 |0.04947 0.36947 |0.04947 0.04947 0.36947 | 0.04947 0.04947 0.04947 0.36947]
~ Xmatrix = [0.83227003 |0.75847 0.83227003 |0.74207002 0.75847 0.83227003 | 0.75847 0.74207002 0.75847 0.83227003]
New   LineCode.4x16Al_4x1p5Cu_as10__YMvKh_asmb nphases=4 C1=0.43000001 C0=0.25800002 Normamps=65.0 Units=km
~ Rmatrix = [1.95946991 |0.04947 1.95946991 |0.04947 0.04947 1.95946991 | 0.04947 0.04947 0.04947 1.95946991]
~ Xmatrix = [0.89283001 |0.80643004 0.89283001 |0.78723001 0.80643004 0.89283001 | 0.80643004 0.78723001 0.80643004 0.89283001]
New   LineCode.4x150Al__VGPLK nphases=4 C1=0.75 C0=0.44999999 Normamps=235.0 Units=km
~ Rmatrix = [0.25547001 |0.04947 0.25547001 |0.04947 0.04947 0.25547001 | 0.04947 0.04947 0.04947 0.25547001]
~ Xmatrix = [0.81673998 |0.75553995 0.81673998 |0.74193996 0.75553995 0.81673998 | 0.75553995 0.74193996 0.75553995 0.81673998]
New   LineCode.4x50Al__GPLK nphases=4 C1=0.61000001 C0=0.366 Normamps=121.0 Units=km
~ Rmatrix = [0.69046998 |0.04947 0.69046998 |0.04947 0.04947 0.69046998 | 0.04947 0.04947 0.04947 0.69046998]
~ Xmatrix = [0.85408998 |0.78928995 0.85408998 |0.77489001 0.78928995 0.85408998 | 0.78928995 0.77489001 0.78928995 0.85408998]
New   LineCode.4x50Cu__GPLK nphases=4 C1=0.61000001 C0=0.366 Normamps=158.0 Units=km
~ Rmatrix = [0.43647 |0.04947 0.43647 |0.04947 0.04947 0.43647 | 0.04947 0.04947 0.04947 0.43647]
~ Xmatrix = [0.85408998 |0.78928995 0.85408998 |0.77489001 0.78928995 0.85408998 | 0.78928995 0.77489001 0.78928995 0.85408998]
New   LineCode.4x150Cu__VMvK_as nphases=4 C1=0.72000003 C0=0.43200001 Normamps=414.0 Units=km
~ Rmatrix = [0.17347001 |0.04947 0.17347001 |0.04947 0.04947 0.17347001 | 0.04947 0.04947 0.04947 0.17347001]
~ Xmatrix = [0.81673998 |0.74563998 0.81673998 |0.72983998 0.74563998 0.81673998 | 0.74563998 0.72983998 0.74563998 0.81673998]
New   LineCode.4x95Al_4x6Cu_35CuAs_V_VMvKhsas nphases=4 C1=0.66000003 C0=0.39600003 Normamps=184.0 Units=km
~ Rmatrix = [0.36947 |0.04947 0.36947 |0.04947 0.04947 0.36947 | 0.04947 0.04947 0.04947 0.36947]
~ Xmatrix = [0.83227003 |0.75847 0.83227003 |0.74207002 0.75847 0.83227003 | 0.75847 0.74207002 0.75847 0.83227003]
New   LineCode.5x6Cu__YMvK_asmb nphases=4 C1=0.186 C0=0.1116 Normamps=71.0 Units=km
~ Rmatrix = [3.12946987 |0.04947 3.12946987 |0.04947 0.04947 3.12946987 | 0.04947 0.04947 0.04947 3.12946987]
~ Xmatrix = [0.92618001 |0.82988 0.92618001 |0.80848002 0.82988 0.92618001 | 0.82988 0.80848002 0.82988 0.92618001]
New   LineCode.4x6Cu__VMvK nphases=4 C1=0.186 C0=0.1116 Normamps=71.0 Units=km
~ Rmatrix = [3.12946987 |0.04947 3.12946987 |0.04947 0.04947 3.12946987 | 0.04947 0.04947 0.04947 3.12946987]
~ Xmatrix = [0.92618001 |0.82988 0.92618001 |0.80848002 0.82988 0.92618001 | 0.82988 0.80848002 0.82988 0.92618001]
New   LineCode.4x10Cu_4x2p5Cu__GPLKh nphases=4 C1=0.27700001 C0=0.16620001 Normamps=65.0 Units=km
~ Rmatrix = [1.87946999 |0.04947 1.87946999 |0.04947 0.04947 1.87946999 | 0.04947 0.04947 0.04947 1.87946999]
~ Xmatrix = [0.90881002 |0.82960999 0.90881002 |0.81200999 0.82960999 0.90881002 | 0.82960999 0.81200999 0.82960999 0.90881002]
New   LineCode.4x50Cu__VMvK nphases=4 C1=0.308 C0=0.1848 Normamps=222.0 Units=km
~ Rmatrix = [0.43647 |0.04947 0.43647 |0.04947 0.04947 0.43647 | 0.04947 0.04947 0.04947 0.43647]
~ Xmatrix = [0.85408998 |0.77758998 0.85408998 |0.76058996 0.77758998 0.85408998 | 0.77758998 0.76058996 0.77758998 0.85408998]
New   LineCode.4x10Cu__VG_VMVK nphases=4 C1=0.229 C0=0.1374 Normamps=95.0 Units=km
~ Rmatrix = [1.87946999 |0.04947 1.87946999 |0.04947 0.04947 1.87946999 | 0.04947 0.04947 0.04947 1.87946999]
~ Xmatrix = [0.90881002 |0.81881005 0.90881002 |0.79881001 0.81881005 0.90881002 | 0.81881005 0.79881001 0.81881005 0.90881002]
New   LineCode.4x10Cu__VG_VMvKas nphases=4 C1=0.37785 C0=0.22670999 Normamps=95.0 Units=km
~ Rmatrix = [1.87946999 |0.04947 1.87946999 |0.04947 0.04947 1.87946999 | 0.04947 0.04947 0.04947 1.87946999]
~ Xmatrix = [0.90881002 |0.81881005 0.90881002 |0.79881001 0.81881005 0.90881002 | 0.81881005 0.79881001 0.81881005 0.90881002]
New   LineCode.4x6Cu__VO_YMvK_asmb nphases=4 C1=0.30689999 C0=0.18414 Normamps=71.0 Units=km
~ Rmatrix = [3.12946987 |0.04947 3.12946987 |0.04947 0.04947 3.12946987 | 0.04947 0.04947 0.04947 3.12946987]
~ Xmatrix = [0.92618001 |0.82988 0.92618001 |0.80848002 0.82988 0.92618001 | 0.82988 0.80848002 0.82988 0.92618001]
New   LineCode.4x4Cu__VMvK nphases=4 C1=0.17200001 C0=0.1032 Normamps=57.0 Units=km
~ Rmatrix = [4.65947008 |0.04947 4.65947008 |0.04947 0.04947 4.65947008 | 0.04947 0.04947 0.04947 4.65947008]
~ Xmatrix = [0.93997002 |0.83827001 0.93997002 |0.81567001 0.83827001 0.93997002 | 0.83827001 0.81567001 0.83827001 0.93997002]
New   LineCode.4x16Cu_as16__VG_VMvK_as nphases=4 C1=0.43000001 C0=0.25800002 Normamps=122.0 Units=km
~ Rmatrix = [1.19946992 |0.04947 1.19946992 |0.04947 0.04947 1.19946992 | 0.04947 0.04947 0.04947 1.19946992]
~ Xmatrix = [0.89283001 |0.80643004 0.89283001 |0.78723001 0.80643004 0.89283001 | 0.80643004 0.78723001 0.80643004 0.89283001]
New   LineCode.4x10Cu_4x1p5Cu__GPLKh nphases=4 C1=0.27700001 C0=0.16620001 Normamps=65.0 Units=km
~ Rmatrix = [1.87946999 |0.04947 1.87946999 |0.04947 0.04947 1.87946999 | 0.04947 0.04947 0.04947 1.87946999]
~ Xmatrix = [0.90881002 |0.82960999 0.90881002 |0.81200999 0.82960999 0.90881002 | 0.82960999 0.81200999 0.82960999 0.90881002]
New   LineCode.4x25Cu__VMvK nphases=4 C1=0.29100001 C0=0.17460001 Normamps=156.0 Units=km
~ Rmatrix = [0.77647001 |0.04947 0.77647001 |0.04947 0.04947 0.77647001 | 0.04947 0.04947 0.04947 0.77647001]
~ Xmatrix = [0.87765998 |0.79306 0.87765998 |0.77425998 0.79306 0.87765998 | 0.79306 0.77425998 0.79306 0.87765998]
New   LineCode.4x4Cu__GPLK nphases=4 C1=0.2 C0=0.12 Normamps=40.0 Units=km
~ Rmatrix = [4.65947008 |0.04947 4.65947008 |0.04947 0.04947 4.65947008 | 0.04947 0.04947 0.04947 4.65947008]
~ Xmatrix = [0.93997002 |0.84997004 0.93997002 |0.82997 0.84997004 0.93997002 | 0.84997004 0.82997 0.84997004 0.93997002]
New   LineCode.4x150Al_as50Cu__V_VMvKsas nphases=4 C1=0.72000003 C0=0.43200001 Normamps=239.0 Units=km
~ Rmatrix = [0.25547001 |0.04947 0.25547001 |0.04947 0.04947 0.25547001 | 0.04947 0.04947 0.04947 0.25547001]
~ Xmatrix = [0.81673998 |0.74563998 0.81673998 |0.72983998 0.74563998 0.81673998 | 0.74563998 0.72983998 0.74563998 0.81673998]
New   LineCode.7x2p5Cu__GPLK nphases=4 C1=0.2 C0=0.12 Normamps=32.0 Units=km
~ Rmatrix = [7.4594698 |0.04947 7.4594698 |0.04947 0.04947 7.4594698 | 0.04947 0.04947 0.04947 7.4594698]
~ Xmatrix = [0.95595002 |0.86595005 0.95595002 |0.84595001 0.86595005 0.95595002 | 0.86595005 0.84595001 0.86595005 0.95595002]
New   LineCode.3x2p5Cu_as2p5__VO_YMvK_asmb nphases=4 C1=0.25740001 C0=0.15444 Normamps=45.0 Units=km
~ Rmatrix = [7.4594698 |0.04947 7.4594698 |0.04947 0.04947 7.4594698 | 0.04947 0.04947 0.04947 7.4594698]
~ Xmatrix = [0.95595002 |0.84885001 0.95595002 |0.82505 0.84885001 0.95595002 | 0.84885001 0.82505 0.84885001 0.95595002]
New   LineCode.3x2p5Cu__VMVK_as nphases=4 C1=0.25740001 C0=0.15444 Normamps=45.0 Units=km
~ Rmatrix = [7.4594698 |0.04947 7.4594698 |0.04947 0.04947 7.4594698 | 0.04947 0.04947 0.04947 7.4594698]
~ Xmatrix = [0.95595002 |0.84885001 0.95595002 |0.82505 0.84885001 0.95595002 | 0.84885001 0.82505 0.84885001 0.95595002]
New   LineCode.2x2p5Cu_as2p5__VO_YMvK_asmb nphases=4 C1=0.25740001 C0=0.15444 Normamps=45.0 Units=km
~ Rmatrix = [7.4594698 |0.04947 7.4594698 |0.04947 0.04947 7.4594698 | 0.04947 0.04947 0.04947 7.4594698]
~ Xmatrix = [0.95595002 |0.84885001 0.95595002 |0.82505 0.84885001 0.95595002 | 0.84885001 0.82505 0.84885001 0.95595002]
New   LineCode.5x10Cu__VMvK nphases=4 C1=0.229 C0=0.1374 Normamps=95.0 Units=km
~ Rmatrix = [1.87946999 |0.04947 1.87946999 |0.04947 0.04947 1.87946999 | 0.04947 0.04947 0.04947 1.87946999]
~ Xmatrix = [0.90881002 |0.81881005 0.90881002 |0.79881001 0.81881005 0.90881002 | 0.81881005 0.79881001 0.81881005 0.90881002]
New   LineCode.4x10Cu_as10__EO_YMEK_aszh nphases=4 C1=0.37785 C0=0.22670999 Normamps=95.0 Units=km
~ Rmatrix = [1.87946999 |0.04947 1.87946999 |0.04947 0.04947 1.87946999 | 0.04947 0.04947 0.04947 1.87946999]
~ Xmatrix = [0.90881002 |0.81881005 0.90881002 |0.79881001 0.81881005 0.90881002 | 0.81881005 0.79881001 0.81881005 0.90881002]
New   LineCode.4x50Al_4x2p5Cu__VG_VMvKh nphases=4 C1=0.308 C0=0.1848 Normamps=126.0 Units=km
~ Rmatrix = [0.69046998 |0.04947 0.69046998 |0.04947 0.04947 0.69046998 | 0.04947 0.04947 0.04947 0.69046998]
~ Xmatrix = [0.85408998 |0.77758998 0.85408998 |0.76058996 0.77758998 0.85408998 | 0.77758998 0.76058996 0.77758998 0.85408998]
New   LineCode.5x16Cu__YMvK_mb nphases=4 C1=0.264 C0=0.1584 Normamps=122.0 Units=km
~ Rmatrix = [1.19946992 |0.04947 1.19946992 |0.04947 0.04947 1.19946992 | 0.04947 0.04947 0.04947 1.19946992]
~ Xmatrix = [0.89283001 |0.80553001 0.89283001 |0.78613001 0.80553001 0.89283001 | 0.80553001 0.78613001 0.80553001 0.89283001]
New   LineCode.4x6Cu__VG_YMvKas nphases=4 C1=0.30689999 C0=0.18414 Normamps=71.0 Units=km
~ Rmatrix = [3.12946987 |0.04947 3.12946987 |0.04947 0.04947 3.12946987 | 0.04947 0.04947 0.04947 3.12946987]
~ Xmatrix = [0.92618001 |0.82988 0.92618001 |0.80848002 0.82988 0.92618001 | 0.82988 0.80848002 0.82988 0.92618001]
New   LineCode.4x50Cu_2x10Cu_2x2p5Cu__GPLKh nphases=4 C1=0.61000001 C0=0.366 Normamps=158.0 Units=km
~ Rmatrix = [0.43647 |0.04947 0.43647 |0.04947 0.04947 0.43647 | 0.04947 0.04947 0.04947 0.43647]
~ Xmatrix = [0.85408998 |0.78928995 0.85408998 |0.77489001 0.78928995 0.85408998 | 0.78928995 0.77489001 0.78928995 0.85408998]
New   LineCode.4x6Cu_4x2p5Cu__VG_YMVKh_as nphases=4 C1=0.30689999 C0=0.18414 Normamps=71.0 Units=km
~ Rmatrix = [3.12946987 |0.04947 3.12946987 |0.04947 0.04947 3.12946987 | 0.04947 0.04947 0.04947 3.12946987]
~ Xmatrix = [0.92618001 |0.82988 0.92618001 |0.80848002 0.82988 0.92618001 | 0.82988 0.80848002 0.82988 0.92618001]
New   LineCode.4x25Cu_2x6Cu_2x2p5Cu__GPLKh nphases=4 C1=0.47 C0=0.28200001 Normamps=112.0 Units=km
~ Rmatrix = [0.77647001 |0.04947 0.77647001 |0.04947 0.04947 0.77647001 | 0.04947 0.04947 0.04947 0.77647001]
~ Xmatrix = [0.87765998 |0.80925995 0.87765998 |0.79405999 0.80925995 0.87765998 | 0.80925995 0.79405999 0.80925995 0.87765998]
New   LineCode.4x10Cu_4x2p5Cu__VMvKh nphases=4 C1=0.229 C0=0.1374 Normamps=95.0 Units=km
~ Rmatrix = [1.87946999 |0.04947 1.87946999 |0.04947 0.04947 1.87946999 | 0.04947 0.04947 0.04947 1.87946999]
~ Xmatrix = [0.90881002 |0.81881005 0.90881002 |0.79881001 0.81881005 0.90881002 | 0.81881005 0.79881001 0.81881005 0.90881002]
New   LineCode.4x6Cu_4x2p5Cu__GPLKh nphases=4 C1=0.2 C0=0.12 Normamps=49.0 Units=km
~ Rmatrix = [3.12946987 |0.04947 3.12946987 |0.04947 0.04947 3.12946987 | 0.04947 0.04947 0.04947 3.12946987]
~ Xmatrix = [0.92618001 |0.83618003 0.92618001 |0.81617999 0.83618003 0.92618001 | 0.83618003 0.81617999 0.83618003 0.92618001]
New   LineCode.2x6Cu__VMvK nphases=4 C1=0.186 C0=0.1116 Normamps=71.0 Units=km
~ Rmatrix = [3.12946987 |0.04947 3.12946987 |0.04947 0.04947 3.12946987 | 0.04947 0.04947 0.04947 3.12946987]
~ Xmatrix = [0.92618001 |0.82988 0.92618001 |0.80848002 0.82988 0.92618001 | 0.82988 0.80848002 0.82988 0.92618001]
New   LineCode.4x6Cu_as6__VO_YMvK_asmb nphases=4 C1=0.30689999 C0=0.18414 Normamps=71.0 Units=km
~ Rmatrix = [3.12946987 |0.04947 3.12946987 |0.04947 0.04947 3.12946987 | 0.04947 0.04947 0.04947 3.12946987]
~ Xmatrix = [0.92618001 |0.82988 0.92618001 |0.80848002 0.82988 0.92618001 | 0.82988 0.80848002 0.82988 0.92618001]
New   LineCode.4x50Al__VMvK nphases=4 C1=0.308 C0=0.1848 Normamps=126.0 Units=km
~ Rmatrix = [0.69046998 |0.04947 0.69046998 |0.04947 0.04947 0.69046998 | 0.04947 0.04947 0.04947 0.69046998]
~ Xmatrix = [0.85408998 |0.77758998 0.85408998 |0.76058996 0.77758998 0.85408998 | 0.77758998 0.76058996 0.77758998 0.85408998]
New   LineCode.4x150Al__VG_VMvK nphases=4 C1=0.43599999 C0=0.26159999 Normamps=248.0 Units=km
~ Rmatrix = [0.25547001 |0.04947 0.25547001 |0.04947 0.04947 0.25547001 | 0.04947 0.04947 0.04947 0.25547001]
~ Xmatrix = [0.81673998 |0.74563998 0.81673998 |0.72983998 0.74563998 0.81673998 | 0.74563998 0.72983998 0.74563998 0.81673998]
New   LineCode.3x10Cu__VG_VMvK_as nphases=4 C1=0.37785 C0=0.22670999 Normamps=95.0 Units=km
~ Rmatrix = [1.87946999 |0.04947 1.87946999 |0.04947 0.04947 1.87946999 | 0.04947 0.04947 0.04947 1.87946999]
~ Xmatrix = [0.90881002 |0.81881005 0.90881002 |0.79881001 0.81881005 0.90881002 | 0.81881005 0.79881001 0.81881005 0.90881002]
New   LineCode.4x50Al__VG_VMvK nphases=4 C1=0.308 C0=0.1848 Normamps=126.0 Units=km
~ Rmatrix = [0.69046998 |0.04947 0.69046998 |0.04947 0.04947 0.69046998 | 0.04947 0.04947 0.04947 0.69046998]
~ Xmatrix = [0.85408998 |0.77758998 0.85408998 |0.76058996 0.77758998 0.85408998 | 0.77758998 0.76058996 0.77758998 0.85408998]
New   LineCode.4x6Cu_4x2p5Cu__VO_YMvKh_asmb nphases=4 C1=0.30689999 C0=0.18414 Normamps=71.0 Units=km
~ Rmatrix = [3.12946987 |0.04947 3.12946987 |0.04947 0.04947 3.12946987 | 0.04947 0.04947 0.04947 3.12946987]
~ Xmatrix = [0.92618001 |0.82988 0.92618001 |0.80848002 0.82988 0.92618001 | 0.82988 0.80848002 0.82988 0.92618001]
New   LineCode.4x50Al_4x6Cu_as25__VG_VMvKh_sas nphases=4 C1=0.54000002 C0=0.324 Normamps=126.0 Units=km
~ Rmatrix = [0.69046998 |0.04947 0.69046998 |0.04947 0.04947 0.69046998 | 0.04947 0.04947 0.04947 0.69046998]
~ Xmatrix = [0.85408998 |0.77758998 0.85408998 |0.76058996 0.77758998 0.85408998 | 0.77758998 0.76058996 0.77758998 0.85408998]
New   LineCode.4x6Cu_as6__YMvK_asmb nphases=4 C1=0.30689999 C0=0.18414 Normamps=71.0 Units=km
~ Rmatrix = [3.12946987 |0.04947 3.12946987 |0.04947 0.04947 3.12946987 | 0.04947 0.04947 0.04947 3.12946987]
~ Xmatrix = [0.92618001 |0.82988 0.92618001 |0.80848002 0.82988 0.92618001 | 0.82988 0.80848002 0.82988 0.92618001]
New   LineCode.4x6Cu_4x2p5Cu__VG_VMvKh nphases=4 C1=0.186 C0=0.1116 Normamps=71.0 Units=km
~ Rmatrix = [3.12946987 |0.04947 3.12946987 |0.04947 0.04947 3.12946987 | 0.04947 0.04947 0.04947 3.12946987]
~ Xmatrix = [0.92618001 |0.82988 0.92618001 |0.80848002 0.82988 0.92618001 | 0.82988 0.80848002 0.82988 0.92618001]
New   LineCode.4x35Cu_4x6Cu__GPLKh nphases=4 C1=0.54000002 C0=0.324 Normamps=135.0 Units=km
~ Rmatrix = [0.57347 |0.04947 0.57347 |0.04947 0.04947 0.57347 | 0.04947 0.04947 0.04947 0.57347]
~ Xmatrix = [0.86622 |0.79961997 0.86622 |0.78482002 0.79961997 0.86622 | 0.79961997 0.78482002 0.79961997 0.86622]
New   LineCode.3x35Cu_1x25Cu_2x6Cu_2x1Cu__GPLKh nphases=4 C1=0.54000002 C0=0.324 Normamps=135.0 Units=km
~ Rmatrix = [0.57347 |0.04947 0.57347 |0.04947 0.04947 0.57347 | 0.04947 0.04947 0.04947 0.57347]
~ Xmatrix = [0.86622 |0.79961997 0.86622 |0.78482002 0.79961997 0.86622 | 0.79961997 0.78482002 0.79961997 0.86622]
New   LineCode.4x6Cu_4x1Cu__GPLK nphases=4 C1=0.2 C0=0.12 Normamps=49.0 Units=km
~ Rmatrix = [3.12946987 |0.04947 3.12946987 |0.04947 0.04947 3.12946987 | 0.04947 0.04947 0.04947 3.12946987]
~ Xmatrix = [0.92618001 |0.83618003 0.92618001 |0.81617999 0.83618003 0.92618001 | 0.83618003 0.81617999 0.83618003 0.92618001]
New   LineCode.4x16Al_as10__YMvK_asmb nphases=4 C1=0.43000001 C0=0.25800002 Normamps=65.0 Units=km
~ Rmatrix = [1.95946991 |0.04947 1.95946991 |0.04947 0.04947 1.95946991 | 0.04947 0.04947 0.04947 1.95946991]
~ Xmatrix = [0.89283001 |0.80643004 0.89283001 |0.78723001 0.80643004 0.89283001 | 0.80643004 0.78723001 0.80643004 0.89283001]
New   LineCode.4x6Cu_4x1Cu__GPLKh nphases=4 C1=0.2 C0=0.12 Normamps=49.0 Units=km
~ Rmatrix = [3.12946987 |0.04947 3.12946987 |0.04947 0.04947 3.12946987 | 0.04947 0.04947 0.04947 3.12946987]
~ Xmatrix = [0.92618001 |0.83618003 0.92618001 |0.81617999 0.83618003 0.92618001 | 0.83618003 0.81617999 0.83618003 0.92618001]
New   LineCode.4x16Cu__VG_YMvKas nphases=4 C1=0.43000001 C0=0.25800002 Normamps=122.0 Units=km
~ Rmatrix = [1.19946992 |0.04947 1.19946992 |0.04947 0.04947 1.19946992 | 0.04947 0.04947 0.04947 1.19946992]
~ Xmatrix = [0.89283001 |0.80643004 0.89283001 |0.78723001 0.80643004 0.89283001 | 0.80643004 0.78723001 0.80643004 0.89283001]
New   LineCode.3x50Cu_1x35Cu_2x10Cu_2x2p5__GPLKh nphases=4 C1=0.61000001 C0=0.366 Normamps=158.0 Units=km
~ Rmatrix = [0.43647 |0.04947 0.43647 |0.04947 0.04947 0.43647 | 0.04947 0.04947 0.04947 0.43647]
~ Xmatrix = [0.85408998 |0.78928995 0.85408998 |0.77489001 0.78928995 0.85408998 | 0.78928995 0.77489001 0.78928995 0.85408998]
New   LineCode.3x50Cu_1x25Cu_2x10Cu_2x2p5__GPLKh nphases=4 C1=0.61000001 C0=0.366 Normamps=158.0 Units=km
~ Rmatrix = [0.43647 |0.04947 0.43647 |0.04947 0.04947 0.43647 | 0.04947 0.04947 0.04947 0.43647]
~ Xmatrix = [0.85408998 |0.78928995 0.85408998 |0.77489001 0.78928995 0.85408998 | 0.78928995 0.77489001 0.78928995 0.85408998]
New   LineCode.4x95Al_4x6Cu__VG_VMvKh nphases=4 C1=0.391 C0=0.23460001 Normamps=193.0 Units=km
~ Rmatrix = [0.36947 |0.04947 0.36947 |0.04947 0.04947 0.36947 | 0.04947 0.04947 0.04947 0.36947]
~ Xmatrix = [0.83227003 |0.75847 0.83227003 |0.74207002 0.75847 0.83227003 | 0.75847 0.74207002 0.75847 0.83227003]
New   LineCode.3x35Cu_1x25Cu_2x10Cu_2x2p5__GPLKh nphases=4 C1=0.54000002 C0=0.324 Normamps=135.0 Units=km
~ Rmatrix = [0.57347 |0.04947 0.57347 |0.04947 0.04947 0.57347 | 0.04947 0.04947 0.04947 0.57347]
~ Xmatrix = [0.86622 |0.79961997 0.86622 |0.78482002 0.79961997 0.86622 | 0.79961997 0.78482002 0.79961997 0.86622]
New   LineCode.4x16Cu_4x2p5Cu__VMvKh_as nphases=4 C1=0.43000001 C0=0.25800002 Normamps=122.0 Units=km
~ Rmatrix = [1.19946992 |0.04947 1.19946992 |0.04947 0.04947 1.19946992 | 0.04947 0.04947 0.04947 1.19946992]
~ Xmatrix = [0.89283001 |0.80643004 0.89283001 |0.78723001 0.80643004 0.89283001 | 0.80643004 0.78723001 0.80643004 0.89283001]
New   LineCode.4x50Cu_4x6Cu__GPLKh nphases=4 C1=0.61000001 C0=0.366 Normamps=158.0 Units=km
~ Rmatrix = [0.43647 |0.04947 0.43647 |0.04947 0.04947 0.43647 | 0.04947 0.04947 0.04947 0.43647]
~ Xmatrix = [0.85408998 |0.78928995 0.85408998 |0.77489001 0.78928995 0.85408998 | 0.78928995 0.77489001 0.78928995 0.85408998]
New   LineCode.4x50Al_2x2p5Cu__VG_VMvKh_as nphases=4 C1=0.54000002 C0=0.324 Normamps=126.0 Units=km
~ Rmatrix = [0.69046998 |0.04947 0.69046998 |0.04947 0.04947 0.69046998 | 0.04947 0.04947 0.04947 0.69046998]
~ Xmatrix = [0.85408998 |0.77758998 0.85408998 |0.76058996 0.77758998 0.85408998 | 0.77758998 0.76058996 0.77758998 0.85408998]
New   LineCode.4x150Al_as50__VG_VMVK_sas nphases=4 C1=0.72000003 C0=0.43200001 Normamps=239.0 Units=km
~ Rmatrix = [0.25547001 |0.04947 0.25547001 |0.04947 0.04947 0.25547001 | 0.04947 0.04947 0.04947 0.25547001]
~ Xmatrix = [0.81673998 |0.74563998 0.81673998 |0.72983998 0.74563998 0.81673998 | 0.74563998 0.72983998 0.74563998 0.81673998]
New   LineCode.4x16Cu_2x2p5Cu__YMvKh_asmb nphases=4 C1=0.43000001 C0=0.25800002 Normamps=122.0 Units=km
~ Rmatrix = [1.19946992 |0.04947 1.19946992 |0.04947 0.04947 1.19946992 | 0.04947 0.04947 0.04947 1.19946992]
~ Xmatrix = [0.89283001 |0.80643004 0.89283001 |0.78723001 0.80643004 0.89283001 | 0.80643004 0.78723001 0.80643004 0.89283001]
New   LineCode.4x6Cu_4x2p5Cu__YMvKh_asmb nphases=4 C1=0.30689999 C0=0.18414 Normamps=71.0 Units=km
~ Rmatrix = [3.12946987 |0.04947 3.12946987 |0.04947 0.04947 3.12946987 | 0.04947 0.04947 0.04947 3.12946987]
~ Xmatrix = [0.92618001 |0.82988 0.92618001 |0.80848002 0.82988 0.92618001 | 0.82988 0.80848002 0.82988 0.92618001]
New   LineCode.4x6Cu_4x2p5Cu__VG_YMvKh_asmb nphases=4 C1=0.30689999 C0=0.18414 Normamps=71.0 Units=km
~ Rmatrix = [3.12946987 |0.04947 3.12946987 |0.04947 0.04947 3.12946987 | 0.04947 0.04947 0.04947 3.12946987]
~ Xmatrix = [0.92618001 |0.82988 0.92618001 |0.80848002 0.82988 0.92618001 | 0.82988 0.80848002 0.82988 0.92618001]
New   LineCode.4x6Cu_4x2p5Cu__VMVKh_as nphases=4 C1=0.30689999 C0=0.18414 Normamps=71.0 Units=km
~ Rmatrix = [3.12946987 |0.04947 3.12946987 |0.04947 0.04947 3.12946987 | 0.04947 0.04947 0.04947 3.12946987]
~ Xmatrix = [0.92618001 |0.82988 0.92618001 |0.80848002 0.82988 0.92618001 | 0.82988 0.80848002 0.82988 0.92618001]
New   LineCode.4x10Cu_4x1Cu__VMvKh nphases=4 C1=0.229 C0=0.1374 Normamps=95.0 Units=km
~ Rmatrix = [1.87946999 |0.04947 1.87946999 |0.04947 0.04947 1.87946999 | 0.04947 0.04947 0.04947 1.87946999]
~ Xmatrix = [0.90881002 |0.81881005 0.90881002 |0.79881001 0.81881005 0.90881002 | 0.81881005 0.79881001 0.81881005 0.90881002]
New   LineCode.4x50Cu_4x2p5Cu__VMvKh nphases=4 C1=0.308 C0=0.1848 Normamps=222.0 Units=km
~ Rmatrix = [0.43647 |0.04947 0.43647 |0.04947 0.04947 0.43647 | 0.04947 0.04947 0.04947 0.43647]
~ Xmatrix = [0.85408998 |0.77758998 0.85408998 |0.76058996 0.77758998 0.85408998 | 0.77758998 0.76058996 0.77758998 0.85408998]
New   LineCode.4x70Cu__VMvK nphases=4 C1=0.35699999 C0=0.21419999 Normamps=275.0 Units=km