Clear 

Set DefaultBaseFrequency=50 

! Swing or Source Bar 
New circuit.trafo4_lvnetwork6_1 phases=3 pu=1.0 basekv=10.0 bus1=mv_import_joint_trafo4_lvnetwork6 

! Trafo XFMRCodes 
Redirect XFMRCode.dss 

! Trafo 
New Transformer.transformer27 Xfmrcode=testtrafotype Buses=[mv_import_joint_trafo4_lvnetwork6  lvjoint29.1.2.3] kVs=[10.0 0.4] 

! LineCodes 
Redirect LineCode.dss 

! Lines 
New Line.lv_cable_trafo4_lvnetwork6_2_main_grid Phases=4 Bus1=lvjoint29.1.2.3.0 Bus2=lv_node_trafo4_lvnetwork6_2.1.2.3.4 LineCode=lv_line Length=36.62426144137379 Units=m 
New Line.lv_cable_trafo4_lvnetwork6_3_main_grid Phases=4 Bus1=lv_node_trafo4_lvnetwork6_2.1.2.3.4 Bus2=lv_node_trafo4_lvnetwork6_3.1.2.3.4 LineCode=lv_line Length=70.71920312675029 Units=m 
New Line.lv_cable_trafo4_lvnetwork6_4_main_grid Phases=4 Bus1=lv_node_trafo4_lvnetwork6_3.1.2.3.4 Bus2=lv_node_trafo4_lvnetwork6_4.1.2.3.4 LineCode=lv_line Length=5.90921236225942 Units=m 
New Line.lv_cable_trafo4_lvnetwork6_to_home_1_arch5 Phases=4 Bus1=lv_node_trafo4_lvnetwork6_4.1.2.3.4 Bus2=2xhome598.1.2.3.4 LineCode=lv_line_to_home Length=0.6012559445723271 Units=m 
New Line.lv_cable_trafo4_lvnetwork6_5_main_grid Phases=4 Bus1=lv_node_trafo4_lvnetwork6_4.1.2.3.4 Bus2=lv_node_trafo4_lvnetwork6_5.1.2.3.4 LineCode=lv_line Length=23.86011307908732 Units=m 
New Line.lv_cable_trafo4_lvnetwork6_to_home_0_arch5 Phases=4 Bus1=lv_node_trafo4_lvnetwork6_5.1.2.3.4 Bus2=2xhome597.1.2.3.4 LineCode=lv_line_to_home Length=1.9487403421969756 Units=m 
New Line.lv_cable_trafo4_lvnetwork6_6_main_grid Phases=4 Bus1=lv_node_trafo4_lvnetwork6_5.1.2.3.4 Bus2=lv_node_trafo4_lvnetwork6_6.1.2.3.4 LineCode=lv_line Length=17.543552642753816 Units=m 
New Line.lv_cable_trafo4_lvnetwork6_7_main_grid Phases=4 Bus1=lv_node_trafo4_lvnetwork6_6.1.2.3.4 Bus2=lv_node_trafo4_lvnetwork6_7.1.2.3.4 LineCode=lv_line Length=1.4008111935071552 Units=m 
New Line.lv_cable_trafo4_lvnetwork6_8_main_grid Phases=4 Bus1=lv_node_trafo4_lvnetwork6_7.1.2.3.4 Bus2=lv_node_trafo4_lvnetwork6_8.1.2.3.4 LineCode=lv_line Length=1.9293699565620515 Units=m 
New Line.lv_cable_trafo4_lvnetwork6_to_home_2_arch5 Phases=4 Bus1=lv_node_trafo4_lvnetwork6_8.1.2.3.4 Bus2=6xhome599.1.2.3.4 LineCode=lv_line_to_home Length=0.2348735682230648 Units=m 
New Line.lv_cable_trafo4_lvnetwork6_9_main_grid Phases=4 Bus1=lv_node_trafo4_lvnetwork6_8.1.2.3.4 Bus2=lv_node_trafo4_lvnetwork6_9.1.2.3.4 LineCode=lv_line Length=12.36324432194672 Units=m 
New Line.lv_cable_trafo4_lvnetwork6_10_main_grid Phases=4 Bus1=lv_node_trafo4_lvnetwork6_9.1.2.3.4 Bus2=lv_node_trafo4_lvnetwork6_10.1.2.3.4 LineCode=lv_line Length=14.392571156572432 Units=m 

! Load Definitions 
New Load.2xhome598_Ph1 Bus1=2xhome598.1.4 Phases=1 Conn=wye Model=1 kV=0.23 kW=1 kvar=0.0 
New Load.2xhome598_Ph2 Bus1=2xhome598.2.4 Phases=1 Conn=wye Model=1 kV=0.23 kW=1 kvar=0.0 
New Load.2xhome598_Ph3 Bus1=2xhome598.3.4 Phases=1 Conn=wye Model=1 kV=0.23 kW=1 kvar=0.0 
New Load.2xhome597_Ph1 Bus1=2xhome597.1.4 Phases=1 Conn=wye Model=1 kV=0.23 kW=1 kvar=0.0 
New Load.2xhome597_Ph2 Bus1=2xhome597.2.4 Phases=1 Conn=wye Model=1 kV=0.23 kW=1 kvar=0.0 
New Load.2xhome597_Ph3 Bus1=2xhome597.3.4 Phases=1 Conn=wye Model=1 kV=0.23 kW=1 kvar=0.0 
New Load.6xhome599_Ph1 Bus1=6xhome599.1.4 Phases=1 Conn=wye Model=1 kV=0.23 kW=1 kvar=0.0 
New Load.6xhome599_Ph2 Bus1=6xhome599.2.4 Phases=1 Conn=wye Model=1 kV=0.23 kW=1 kvar=0.0 
New Load.6xhome599_Ph3 Bus1=6xhome599.3.4 Phases=1 Conn=wye Model=1 kV=0.23 kW=1 kvar=0.0 

! Final Configurations 
Set VoltageBases = [10.0, 0.4] 
CalcVoltageBases 
SetkVBase Bus=mv_import_joint_trafo4_lvnetwork6 kVLL=10.0
SetkVBase Bus=lvjoint29 kVLL=0.4

! Solve
Set mode=snapshot
! Solve
